
OS:Version,
  {af3360bf-f048-4bb1-8234-003918fb15fc}, !- Handle
  3.1.0;                                  !- Version Identifier

OS:Facility,
  {bef8a461-4841-44e4-a7a6-01406da302c4}; !- Handle

OS:Site,
  {197a53d5-4f5c-47d7-9601-23a1f74535d2}, !- Handle
  Buffalo Niagara Intl Ap_NY_USA,         !- Name
  42.8135751575089,                       !- Latitude {deg}
  -78.8485788387214,                      !- Longitude {deg}
  -5,                                     !- Time Zone {hr}
  215,                                    !- Elevation {m}
  City;                                   !- Terrain

OS:SimulationControl,
  {bd105b4c-9af9-4c1e-a37c-87efc1f193cf}, !- Handle
  ,                                       !- Do Zone Sizing Calculation
  ,                                       !- Do System Sizing Calculation
  ,                                       !- Do Plant Sizing Calculation
  No,                                     !- Run Simulation for Sizing Periods
  Yes,                                    !- Run Simulation for Weather File Run Periods
  ,                                       !- Loads Convergence Tolerance Value {W}
  ,                                       !- Temperature Convergence Tolerance Value {deltaC}
  ,                                       !- Solar Distribution
  ,                                       !- Maximum Number of Warmup Days
  ,                                       !- Minimum Number of Warmup Days
  Yes,                                    !- Do HVAC Sizing Simulation for Sizing Periods
  1;                                      !- Maximum Number of HVAC Sizing Simulation Passes

OS:Sizing:Parameters,
  {0bbf08ea-afa8-4c56-ab1b-e4027e7628c3}, !- Handle
  1.25,                                   !- Heating Sizing Factor
  1.15;                                   !- Cooling Sizing Factor

OS:Timestep,
  {bf14d9fb-9f2e-4b47-8bf0-532d23f3950a}, !- Handle
  1;                                      !- Number of Timesteps per Hour

OS:ShadowCalculation,
  {5efe1b38-5c3d-4751-be68-fbd86d63dcd6}, !- Handle
  PolygonClipping,                        !- Shading Calculation Method
  ,                                       !- Shading Calculation Update Frequency Method
  20,                                     !- Shading Calculation Update Frequency
  15000,                                  !- Maximum Figures in Shadow Overlap Calculations
  ,                                       !- Polygon Clipping Algorithm
  512,                                    !- Pixel Counting Resolution
  ,                                       !- Sky Diffuse Modeling Algorithm
  No,                                     !- Output External Shading Calculation Results
  No,                                     !- Disable Self-Shading Within Shading Zone Groups
  No;                                     !- Disable Self-Shading From Shading Zone Groups to Other Zones

OS:HeatBalanceAlgorithm,
  {b2df2a5c-a15c-4d64-afcb-d9dce21ef3af}, !- Handle
  ConductionTransferFunction,             !- Algorithm
  200;                                    !- Surface Temperature Upper Limit {C}

OS:RunPeriod,
  {4f3dbd65-c784-483d-b6f7-addae2c8398c}, !- Handle
  Run Period 1,                           !- Name
  1,                                      !- Begin Month
  1,                                      !- Begin Day of Month
  12,                                     !- End Month
  31,                                     !- End Day of Month
  ,                                       !- Use Weather File Holidays and Special Days
  ,                                       !- Use Weather File Daylight Saving Period
  ,                                       !- Apply Weekend Holiday Rule
  ,                                       !- Use Weather File Rain Indicators
  ,                                       !- Use Weather File Snow Indicators
  ;                                       !- Number of Times Runperiod to be Repeated

OS:LifeCycleCost:Parameters,
  {efc5d1c9-cc60-4378-885b-7f9fbb122c7b}, !- Handle
  ,                                       !- Analysis Type
  ,                                       !- Discounting Convention
  ,                                       !- Inflation Approach
  ,                                       !- Real Discount Rate
  ,                                       !- Nominal Discount Rate
  ,                                       !- Inflation
  ,                                       !- Base Date Month
  ,                                       !- Base Date Year
  ,                                       !- Service Date Month
  ,                                       !- Service Date Year
  ;                                       !- Length of Study Period in Years

OS:YearDescription,
  {c2b8337b-a760-4be6-b9e3-e08fb7c88fce}, !- Handle
  2017,                                   !- Calendar Year
  ,                                       !- Day of Week for Start Day
  ;                                       !- Is Leap Year

OS:WeatherFile,
  {4fd1053e-7b8b-4588-95aa-6a7431680171}, !- Handle
  Buffalo Niagara Intl Ap,                !- City
  NY,                                     !- State Province Region
  USA,                                    !- Country
  TMY3,                                   !- Data Source
  725280,                                 !- WMO Number
  42.93,                                  !- Latitude {deg}
  -78.73,                                 !- Longitude {deg}
  -5,                                     !- Time Zone {hr}
  215,                                    !- Elevation {m}
  /Users/nmoore/github/bbb/weather/USA_NY_Buffalo-Greater.Buffalo.Intl.AP.725280_TMY3.epw, !- Url
  ;                                       !- Checksum

OS:Site:WaterMainsTemperature,
  {09e96ba8-c591-4f15-8ff9-7bff6a379a21}, !- Handle
  Correlation,                            !- Calculation Method
  ,                                       !- Temperature Schedule Name
  8.96666666666667,                       !- Annual Average Outdoor Air Temperature {C}
  26.2;                                   !- Maximum Difference In Monthly Average Outdoor Air Temperatures {deltaC}

OS:SizingPeriod:DesignDay,
  {39cd9abc-415d-45bb-915e-db4aa675bec0}, !- Handle
  Buffalo Niagara Intl Ap Ann Clg .4% Condns DB=>MWB 1, !- Name
  30.3,                                   !- Maximum Dry-Bulb Temperature {C}
  9.3,                                    !- Daily Dry-Bulb Temperature Range {deltaC}
  21.8,                                   !- Humidity Indicating Conditions at Maximum Dry-Bulb
  98769,                                  !- Barometric Pressure {Pa}
  5.7,                                    !- Wind Speed {m/s}
  240,                                    !- Wind Direction {deg}
  0,                                      !- Sky Clearness
  0,                                      !- Rain Indicator
  0,                                      !- Snow Indicator
  21,                                     !- Day of Month
  7,                                      !- Month
  SummerDesignDay,                        !- Day Type
  0,                                      !- Daylight Saving Time Indicator
  Wetbulb,                                !- Humidity Indicating Type
  ,                                       !- Humidity Indicating Day Schedule Name
  DefaultMultipliers,                     !- Dry-Bulb Temperature Range Modifier Type
  ,                                       !- Dry-Bulb Temperature Range Modifier Schedule Name
  ASHRAETau,                              !- Solar Model Indicator
  ,                                       !- Beam Solar Day Schedule Name
  ,                                       !- Diffuse Solar Day Schedule Name
  0.462,                                  !- ASHRAE Taub {dimensionless}
  2.001;                                  !- ASHRAE Taud {dimensionless}

OS:SizingPeriod:DesignDay,
  {e9ac045b-6d70-4747-9cb3-666a494d11c8}, !- Handle
  Buffalo Niagara Intl Ap Ann Clg .4% Condns WB=>MDB 1, !- Name
  27.8,                                   !- Maximum Dry-Bulb Temperature {C}
  9.3,                                    !- Daily Dry-Bulb Temperature Range {deltaC}
  23.8,                                   !- Humidity Indicating Conditions at Maximum Dry-Bulb
  98769,                                  !- Barometric Pressure {Pa}
  5.7,                                    !- Wind Speed {m/s}
  240,                                    !- Wind Direction {deg}
  0,                                      !- Sky Clearness
  0,                                      !- Rain Indicator
  0,                                      !- Snow Indicator
  21,                                     !- Day of Month
  7,                                      !- Month
  SummerDesignDay,                        !- Day Type
  0,                                      !- Daylight Saving Time Indicator
  Wetbulb,                                !- Humidity Indicating Type
  ,                                       !- Humidity Indicating Day Schedule Name
  DefaultMultipliers,                     !- Dry-Bulb Temperature Range Modifier Type
  ,                                       !- Dry-Bulb Temperature Range Modifier Schedule Name
  ASHRAETau,                              !- Solar Model Indicator
  ,                                       !- Beam Solar Day Schedule Name
  ,                                       !- Diffuse Solar Day Schedule Name
  0.462,                                  !- ASHRAE Taub {dimensionless}
  2.001;                                  !- ASHRAE Taud {dimensionless}

OS:SizingPeriod:DesignDay,
  {15ee425c-8dbd-4399-b42e-63a42b1ab46c}, !- Handle
  Buffalo Niagara Intl Ap Ann Htg 99.6% Condns DB 1, !- Name
  -16.3,                                  !- Maximum Dry-Bulb Temperature {C}
  0,                                      !- Daily Dry-Bulb Temperature Range {deltaC}
  -16.3,                                  !- Humidity Indicating Conditions at Maximum Dry-Bulb
  98769,                                  !- Barometric Pressure {Pa}
  5.1,                                    !- Wind Speed {m/s}
  270,                                    !- Wind Direction {deg}
  0,                                      !- Sky Clearness
  0,                                      !- Rain Indicator
  0,                                      !- Snow Indicator
  21,                                     !- Day of Month
  1,                                      !- Month
  WinterDesignDay,                        !- Day Type
  0,                                      !- Daylight Saving Time Indicator
  Wetbulb,                                !- Humidity Indicating Type
  ,                                       !- Humidity Indicating Day Schedule Name
  DefaultMultipliers,                     !- Dry-Bulb Temperature Range Modifier Type
  ,                                       !- Dry-Bulb Temperature Range Modifier Schedule Name
  ASHRAEClearSky;                         !- Solar Model Indicator

OS:ClimateZones,
  {71dfefae-f4e9-4911-a6be-ea5620b3e9b4}, !- Handle
  ASHRAE,                                 !- Climate Zone Institution Name 1
  ANSI/ASHRAE Standard 169,               !- Climate Zone Document Name 1
  2006,                                   !- Climate Zone Document Year 1
  6A;                                     !- Climate Zone Value 1

OS:Rendering:Color,
  {a5f86889-4438-4527-bcee-516c9e332ddf}, !- Handle
  Office WholeBuilding - Sm Office,       !- Name
  120,                                    !- Rendering Red Value
  230,                                    !- Rendering Green Value
  199;                                    !- Rendering Blue Value

OS:RunPeriodControl:DaylightSavingTime,
  {4de403ff-ea94-4b8e-ac98-dcd96d6a049a}, !- Handle
  2nd Sunday in March,                    !- Start Date
  1st Sunday in November;                 !- End Date

OS:People:Definition,
  {89e43d24-f846-4e9e-ab9a-236d389c92a6}, !- Handle
  Office WholeBuilding - Sm Office People Definition, !- Name
  People/Area,                            !- Number of People Calculation Method
  ,                                       !- Number of People {people}
  0.0602778983335744,                     !- People per Space Floor Area {person/m2}
  ,                                       !- Space Floor Area per Person {m2/person}
  0.3,                                    !- Fraction Radiant
  ,                                       !- Sensible Heat Fraction
  ,                                       !- Carbon Dioxide Generation Rate {m3/s-W}
  Yes,                                    !- Enable ASHRAE 55 Comfort Warnings
  ZoneAveraged,                           !- Mean Radiant Temperature Calculation Type
  Fanger;                                 !- Thermal Comfort Model Type 1

OS:Schedule:Ruleset,
  {68d2d46e-a65e-42b4-97d4-2f0feb2f3971}, !- Handle
  Clothing Schedule,                      !- Name
  {5eac7ad4-e7ce-40bb-bb90-ed51515195b7}, !- Schedule Type Limits Name
  {bd8fd3ee-534d-4597-8041-7a256e8037cd}; !- Default Day Schedule Name

OS:Schedule:Day,
  {bd8fd3ee-534d-4597-8041-7a256e8037cd}, !- Handle
  Clothing Schedule Default Winter Clothes, !- Name
  {5eac7ad4-e7ce-40bb-bb90-ed51515195b7}, !- Schedule Type Limits Name
  ,                                       !- Interpolate to Timestep
  24,                                     !- Hour 1
  0,                                      !- Minute 1
  1;                                      !- Value Until Time 1

OS:Schedule:Rule,
  {7e71b885-fcfb-4224-8b65-18d4d8f23eb3}, !- Handle
  Schedule Rule 1,                        !- Name
  {68d2d46e-a65e-42b4-97d4-2f0feb2f3971}, !- Schedule Ruleset Name
  0,                                      !- Rule Order
  {72b12721-23a9-4ccd-a568-43e583cd0c51}, !- Day Schedule Name
  ,                                       !- Apply Sunday
  ,                                       !- Apply Monday
  ,                                       !- Apply Tuesday
  ,                                       !- Apply Wednesday
  ,                                       !- Apply Thursday
  ,                                       !- Apply Friday
  ,                                       !- Apply Saturday
  DateRange,                              !- Date Specification Type
  5,                                      !- Start Month
  1,                                      !- Start Day
  9,                                      !- End Month
  30;                                     !- End Day

OS:Schedule:Day,
  {72b12721-23a9-4ccd-a568-43e583cd0c51}, !- Handle
  Clothing Schedule Summer Clothes,       !- Name
  {5eac7ad4-e7ce-40bb-bb90-ed51515195b7}, !- Schedule Type Limits Name
  ,                                       !- Interpolate to Timestep
  24,                                     !- Hour 1
  0,                                      !- Minute 1
  0.5;                                    !- Value Until Time 1

OS:ScheduleTypeLimits,
  {5eac7ad4-e7ce-40bb-bb90-ed51515195b7}, !- Handle
  ClothingInsulation,                     !- Name
  0,                                      !- Lower Limit Value
  ,                                       !- Upper Limit Value
  Continuous,                             !- Numeric Type
  ClothingInsulation;                     !- Unit Type

OS:Schedule:Ruleset,
  {c2c788c0-7c98-4483-af52-168f2d1a5824}, !- Handle
  Air Velocity Schedule,                  !- Name
  {270cb535-7983-4299-85f7-414acca64b20}, !- Schedule Type Limits Name
  {c9acfe9c-6961-49dd-93ee-86a2cb8f1212}; !- Default Day Schedule Name

OS:Schedule:Day,
  {c9acfe9c-6961-49dd-93ee-86a2cb8f1212}, !- Handle
  Air Velocity Schedule Default,          !- Name
  {270cb535-7983-4299-85f7-414acca64b20}, !- Schedule Type Limits Name
  ,                                       !- Interpolate to Timestep
  24,                                     !- Hour 1
  0,                                      !- Minute 1
  0.2;                                    !- Value Until Time 1

OS:ScheduleTypeLimits,
  {270cb535-7983-4299-85f7-414acca64b20}, !- Handle
  Velocity,                               !- Name
  0,                                      !- Lower Limit Value
  ,                                       !- Upper Limit Value
  Continuous,                             !- Numeric Type
  Velocity;                               !- Unit Type

OS:Schedule:Ruleset,
  {13eca7cb-f8fd-4511-9bc6-999f9151bd30}, !- Handle
  Work Efficiency Schedule,               !- Name
  {a978c7db-5217-461f-a212-2b26a7914c07}, !- Schedule Type Limits Name
  {faae4476-292d-4f9e-b19c-f401939e5250}; !- Default Day Schedule Name

OS:Schedule:Day,
  {faae4476-292d-4f9e-b19c-f401939e5250}, !- Handle
  Work Efficiency Schedule Default,       !- Name
  {a978c7db-5217-461f-a212-2b26a7914c07}, !- Schedule Type Limits Name
  ,                                       !- Interpolate to Timestep
  24,                                     !- Hour 1
  0,                                      !- Minute 1
  0;                                      !- Value Until Time 1

OS:ScheduleTypeLimits,
  {a978c7db-5217-461f-a212-2b26a7914c07}, !- Handle
  Fractional,                             !- Name
  0,                                      !- Lower Limit Value
  1,                                      !- Upper Limit Value
  Continuous;                             !- Numeric Type

OS:Lights:Definition,
  {d8aa9da6-823f-4ab0-a32e-1c7207228dd4}, !- Handle
  Office WholeBuilding - Sm Office Lights Definition, !- Name
  Watts/Area,                             !- Design Level Calculation Method
  ,                                       !- Lighting Level {W}
  8.82640654170197,                       !- Watts per Space Floor Area {W/m2}
  ,                                       !- Watts per Person {W/person}
  0.7,                                    !- Fraction Radiant
  0.2,                                    !- Fraction Visible
  0;                                      !- Return Air Fraction

OS:AdditionalProperties,
  {7ef93f18-6897-432d-b78f-04a3c883954e}, !- Handle
  {d8aa9da6-823f-4ab0-a32e-1c7207228dd4}, !- Object Name
  lpd_fraction_linear_fluorescent,        !- Feature Name 1
  Double,                                 !- Feature Data Type 1
  1;                                      !- Feature Value 1

OS:ElectricEquipment:Definition,
  {74c0be4f-9039-4805-98be-5a8e45df07a8}, !- Handle
  Office WholeBuilding - Sm Office Elec Equip Definition, !- Name
  Watts/Area,                             !- Design Level Calculation Method
  ,                                       !- Design Level {W}
  6.78126356252712,                       !- Watts per Space Floor Area {W/m2}
  ,                                       !- Watts per Person {W/person}
  0,                                      !- Fraction Latent
  0,                                      !- Fraction Radiant
  0;                                      !- Fraction Lost

OS:DesignSpecification:OutdoorAir,
  {f4133c6f-701c-4bbe-87ba-dc26fa88505d}, !- Handle
  Office WholeBuilding - Sm Office Ventilation, !- Name
  Sum,                                    !- Outdoor Air Method
  ,                                       !- Outdoor Air Flow per Person {m3/s-person}
  0.0004318,                              !- Outdoor Air Flow per Floor Area {m3/s-m2}
  ,                                       !- Outdoor Air Flow Rate {m3/s}
  ,                                       !- Outdoor Air Flow Air Changes per Hour {1/hr}
  ;                                       !- Outdoor Air Flow Rate Fraction Schedule Name

OS:DefaultScheduleSet,
  {53c0ee40-0bc4-412c-8801-abf1d7f905cc}, !- Handle
  Office WholeBuilding - Sm Office Schedule Set, !- Name
  ,                                       !- Hours of Operation Schedule Name
  {734c897f-2550-4c1c-958f-59b59b9c5452}, !- Number of People Schedule Name
  {55c5e8cd-1f23-4c1d-9d26-98cb2cbfbc51}, !- People Activity Level Schedule Name
  {7eda267e-1560-459c-8b88-18aeebeadd33}, !- Lighting Schedule Name
  {75400314-0326-4d19-abb4-f3a153613789}, !- Electric Equipment Schedule Name
  ,                                       !- Gas Equipment Schedule Name
  ,                                       !- Hot Water Equipment Schedule Name
  {8662734f-a957-491a-bc85-627c6d9ac1aa}, !- Infiltration Schedule Name
  ,                                       !- Steam Equipment Schedule Name
  ;                                       !- Other Equipment Schedule Name

OS:Schedule:Ruleset,
  {734c897f-2550-4c1c-958f-59b59b9c5452}, !- Handle
  OfficeSmall BLDG_OCC_SCH,               !- Name
  {a978c7db-5217-461f-a212-2b26a7914c07}, !- Schedule Type Limits Name
  {42b1bb24-3f38-4a78-ae44-125d522baa78}, !- Default Day Schedule Name
  {a1bb09b8-3292-46bf-aec6-9f2ceb087c4f}, !- Summer Design Day Schedule Name
  {0e6ab275-66af-47a1-ab54-bf5ff307844f}; !- Winter Design Day Schedule Name

OS:Schedule:Day,
  {42b1bb24-3f38-4a78-ae44-125d522baa78}, !- Handle
  OfficeSmall BLDG_OCC_SCH Default,       !- Name
  {a978c7db-5217-461f-a212-2b26a7914c07}, !- Schedule Type Limits Name
  ,                                       !- Interpolate to Timestep
  24,                                     !- Hour 1
  0,                                      !- Minute 1
  0;                                      !- Value Until Time 1

OS:Schedule:Day,
  {0e6ab275-66af-47a1-ab54-bf5ff307844f}, !- Handle
  OfficeSmall BLDG_OCC_SCH Winter Design Day, !- Name
  {a978c7db-5217-461f-a212-2b26a7914c07}, !- Schedule Type Limits Name
  ,                                       !- Interpolate to Timestep
  24,                                     !- Hour 1
  0,                                      !- Minute 1
  0;                                      !- Value Until Time 1

OS:Schedule:Day,
  {a1bb09b8-3292-46bf-aec6-9f2ceb087c4f}, !- Handle
  OfficeSmall BLDG_OCC_SCH Summer Design Day, !- Name
  {a978c7db-5217-461f-a212-2b26a7914c07}, !- Schedule Type Limits Name
  ,                                       !- Interpolate to Timestep
  24,                                     !- Hour 1
  0,                                      !- Minute 1
  1;                                      !- Value Until Time 1

OS:Schedule:Rule,
  {80e7b7d7-0285-4f4f-a6e9-95ec6da02141}, !- Handle
  Schedule Rule 2,                        !- Name
  {734c897f-2550-4c1c-958f-59b59b9c5452}, !- Schedule Ruleset Name
  0,                                      !- Rule Order
  {01819e74-2e47-4dcd-a351-442414b8aa89}, !- Day Schedule Name
  ,                                       !- Apply Sunday
  Yes,                                    !- Apply Monday
  Yes,                                    !- Apply Tuesday
  Yes,                                    !- Apply Wednesday
  Yes,                                    !- Apply Thursday
  Yes,                                    !- Apply Friday
  ,                                       !- Apply Saturday
  DateRange,                              !- Date Specification Type
  1,                                      !- Start Month
  1,                                      !- Start Day
  12,                                     !- End Month
  31;                                     !- End Day

OS:Schedule:Day,
  {01819e74-2e47-4dcd-a351-442414b8aa89}, !- Handle
  OfficeSmall BLDG_OCC_SCH Wkdy Day,      !- Name
  {a978c7db-5217-461f-a212-2b26a7914c07}, !- Schedule Type Limits Name
  ,                                       !- Interpolate to Timestep
  6,                                      !- Hour 1
  0,                                      !- Minute 1
  0,                                      !- Value Until Time 1
  7,                                      !- Hour 2
  0,                                      !- Minute 2
  0.11,                                   !- Value Until Time 2
  8,                                      !- Hour 3
  0,                                      !- Minute 3
  0.21,                                   !- Value Until Time 3
  12,                                     !- Hour 4
  0,                                      !- Minute 4
  1,                                      !- Value Until Time 4
  13,                                     !- Hour 5
  0,                                      !- Minute 5
  0.53,                                   !- Value Until Time 5
  17,                                     !- Hour 6
  0,                                      !- Minute 6
  1,                                      !- Value Until Time 6
  18,                                     !- Hour 7
  0,                                      !- Minute 7
  0.32,                                   !- Value Until Time 7
  22,                                     !- Hour 8
  0,                                      !- Minute 8
  0.11,                                   !- Value Until Time 8
  23,                                     !- Hour 9
  0,                                      !- Minute 9
  0.05,                                   !- Value Until Time 9
  24,                                     !- Hour 10
  0,                                      !- Minute 10
  0;                                      !- Value Until Time 10

OS:Schedule:Ruleset,
  {55c5e8cd-1f23-4c1d-9d26-98cb2cbfbc51}, !- Handle
  OfficeSmall ACTIVITY_SCH,               !- Name
  {0510a737-5ce6-445f-9aa3-40d40210ae03}, !- Schedule Type Limits Name
  {794c7bc0-8127-4ef6-886d-7c7795249bb7}, !- Default Day Schedule Name
  {a4ac2ba1-4c6a-494f-991e-0751ea4e57b3}, !- Summer Design Day Schedule Name
  {5ba2bc94-5994-4418-ac22-0e088bd59a19}; !- Winter Design Day Schedule Name

OS:Schedule:Day,
  {794c7bc0-8127-4ef6-886d-7c7795249bb7}, !- Handle
  OfficeSmall ACTIVITY_SCH Default,       !- Name
  {0510a737-5ce6-445f-9aa3-40d40210ae03}, !- Schedule Type Limits Name
  ,                                       !- Interpolate to Timestep
  24,                                     !- Hour 1
  0,                                      !- Minute 1
  120;                                    !- Value Until Time 1

OS:Schedule:Day,
  {5ba2bc94-5994-4418-ac22-0e088bd59a19}, !- Handle
  OfficeSmall ACTIVITY_SCH Winter Design Day, !- Name
  {0510a737-5ce6-445f-9aa3-40d40210ae03}, !- Schedule Type Limits Name
  ,                                       !- Interpolate to Timestep
  24,                                     !- Hour 1
  0,                                      !- Minute 1
  120;                                    !- Value Until Time 1

OS:Schedule:Day,
  {a4ac2ba1-4c6a-494f-991e-0751ea4e57b3}, !- Handle
  OfficeSmall ACTIVITY_SCH Summer Design Day, !- Name
  {0510a737-5ce6-445f-9aa3-40d40210ae03}, !- Schedule Type Limits Name
  ,                                       !- Interpolate to Timestep
  24,                                     !- Hour 1
  0,                                      !- Minute 1
  120;                                    !- Value Until Time 1

OS:ScheduleTypeLimits,
  {0510a737-5ce6-445f-9aa3-40d40210ae03}, !- Handle
  ActivityLevel,                          !- Name
  0,                                      !- Lower Limit Value
  ,                                       !- Upper Limit Value
  Continuous,                             !- Numeric Type
  ActivityLevel;                          !- Unit Type

OS:Schedule:Ruleset,
  {7eda267e-1560-459c-8b88-18aeebeadd33}, !- Handle
  OfficeSmall BLDG_LIGHT_SCH_2013,        !- Name
  {a978c7db-5217-461f-a212-2b26a7914c07}, !- Schedule Type Limits Name
  {e4d1c573-f9c7-477e-8147-ebcc659cfede}, !- Default Day Schedule Name
  {dd1f6474-f338-4279-9a5a-759aeb5aa07b}, !- Summer Design Day Schedule Name
  {b8374532-17b7-4ef7-933d-343d7e188612}; !- Winter Design Day Schedule Name

OS:Schedule:Day,
  {e4d1c573-f9c7-477e-8147-ebcc659cfede}, !- Handle
  OfficeSmall BLDG_LIGHT_SCH_2013 Default, !- Name
  {a978c7db-5217-461f-a212-2b26a7914c07}, !- Schedule Type Limits Name
  ,                                       !- Interpolate to Timestep
  5,                                      !- Hour 1
  0,                                      !- Minute 1
  0.18,                                   !- Value Until Time 1
  6,                                      !- Hour 2
  0,                                      !- Minute 2
  0.23,                                   !- Value Until Time 2
  7,                                      !- Hour 3
  0,                                      !- Minute 3
  0.178641345,                            !- Value Until Time 3
  8,                                      !- Hour 4
  0,                                      !- Minute 4
  0.32621463,                             !- Value Until Time 4
  12,                                     !- Hour 5
  0,                                      !- Minute 5
  0.69903135,                             !- Value Until Time 5
  13,                                     !- Hour 6
  0,                                      !- Minute 6
  0.6213612,                              !- Value Until Time 6
  17,                                     !- Hour 7
  0,                                      !- Minute 7
  0.69903135,                             !- Value Until Time 7
  18,                                     !- Hour 8
  0,                                      !- Minute 8
  0.473787915,                            !- Value Until Time 8
  20,                                     !- Hour 9
  0,                                      !- Minute 9
  0.32621463,                             !- Value Until Time 9
  22,                                     !- Hour 10
  0,                                      !- Minute 10
  0.24854448,                             !- Value Until Time 10
  23,                                     !- Hour 11
  0,                                      !- Minute 11
  0.178641345,                            !- Value Until Time 11
  24,                                     !- Hour 12
  0,                                      !- Minute 12
  0.18;                                   !- Value Until Time 12
